REMARK  Name = 3152
REMARK  8 active torsions:
REMARK  status: ('A' for Active; 'I' for Inactive)
REMARK    1  A    between atoms: O_2  and  C_20
REMARK    2  A    between atoms: O_2  and  C_27
REMARK    3  A    between atoms: O_3  and  C_21
REMARK    4  A    between atoms: O_3  and  C_28
REMARK    5  A    between atoms: N_4  and  C_16
REMARK    6  A    between atoms: C_5  and  C_6
REMARK    7  A    between atoms: C_6  and  C_7
REMARK    8  A    between atoms: C_16  and  C_19
REMARK                            x       y       z     vdW  Elec       q    Type
REMARK                         _______ _______ _______ _____ _____    ______ ____
ROOT
ATOM      1  C   UNL     1       7.128   1.165   0.000  0.00  0.00    +0.015 C 
ENDROOT
BRANCH   1   3
ATOM      2  O   UNL     1       5.855   2.920   0.000  0.00  0.00    -0.292 OA
ATOM      3  C   UNL     1       6.128   1.165   0.000  0.00  0.00    +0.065 C 
ATOM      4  C   UNL     1       5.544   0.360   0.000  0.00  0.00    +0.047 C 
ATOM      5  C   UNL     1       5.544   1.970   0.000  0.00  0.00    +0.167 C 
ATOM      6  C   UNL     1       4.598   0.665   0.000  0.00  0.00    -0.033 A 
ATOM      7  C   UNL     1       4.598   1.665   0.000  0.00  0.00    +0.025 A 
ATOM      8  C   UNL     1       3.732   0.165   0.000  0.00  0.00    +0.053 A 
ATOM      9  C   UNL     1       3.732   2.165   0.000  0.00  0.00    +0.061 A 
ATOM     10  C   UNL     1       2.866   0.665   0.000  0.00  0.00    +0.162 A 
ATOM     11  C   UNL     1       2.866   1.665   0.000  0.00  0.00    +0.162 A 
BRANCH  10  12
ATOM     12  O   UNL     1       2.000   0.165   0.000  0.00  0.00    -0.491 OA
ATOM     13  C   UNL     1       2.000  -0.835   0.000  0.00  0.00    +0.277 C 
ENDBRANCH  10  12
BRANCH  11  14
ATOM     14  O   UNL     1       2.000   2.165   0.000  0.00  0.00    -0.491 OA
ATOM     15  C   UNL     1       2.000   3.165   0.000  0.00  0.00    +0.277 C 
ENDBRANCH  11  14
ENDBRANCH   1   3
BRANCH   1  17
ATOM     16  N   UNL     1       8.628  -1.433   0.000  0.00  0.00    -0.298 NA
ATOM     17  C   UNL     1       7.628   0.299   0.000  0.00  0.00    -0.008 C 
ATOM     18  C   UNL     1       8.628   0.299   0.000  0.00  0.00    +0.019 C 
ATOM     19  C   UNL     1       7.128  -0.567   0.000  0.00  0.00    +0.019 C 
ATOM     20  C   UNL     1       9.128  -0.567   0.000  0.00  0.00    +0.085 C 
ATOM     21  C   UNL     1       7.628  -1.433   0.000  0.00  0.00    +0.085 C 
BRANCH  16  22
ATOM     22  C   UNL     1       9.128  -2.299   0.000  0.00  0.00    +0.119 C 
BRANCH  22  23
ATOM     23  C   UNL     1      10.128  -2.299   0.000  0.00  0.00    -0.033 A 
ATOM     24  C   UNL     1      10.628  -1.433   0.000  0.00  0.00    +0.005 A 
ATOM     25  C   UNL     1      10.628  -3.165   0.000  0.00  0.00    +0.005 A 
ATOM     26  C   UNL     1      11.628  -1.433   0.000  0.00  0.00    +0.000 A 
ATOM     27  C   UNL     1      11.628  -3.165   0.000  0.00  0.00    +0.000 A 
ATOM     28  C   UNL     1      12.128  -2.299   0.000  0.00  0.00    +0.000 A 
ENDBRANCH  22  23
ENDBRANCH  16  22
ENDBRANCH   1  17
TORSDOF 6
