REMARK  Name = 213039
REMARK  16 active torsions:
REMARK  status: ('A' for Active; 'I' for Inactive)
REMARK    1  A    between atoms: S_1  and  N_10
REMARK    2  A    between atoms: S_1  and  C_26
REMARK    3  A    between atoms: O_4  and  C_14
REMARK    4  A    between atoms: O_4  and  C_20
REMARK    5  A    between atoms: O_5  and  C_19
REMARK    6  A    between atoms: N_9  and  C_18
REMARK    7  A    between atoms: N_10  and  C_21
REMARK    8  A    between atoms: N_10  and  C_23
REMARK    9  A    between atoms: N_11  and  C_38
REMARK   10  A    between atoms: C_18  and  C_19
REMARK   11  A    between atoms: C_18  and  C_22
REMARK   12  A    between atoms: C_19  and  C_21
REMARK   13  A    between atoms: C_22  and  C_25
REMARK   14  A    between atoms: C_23  and  C_24
REMARK   15  A    between atoms: C_24  and  C_27
REMARK   16  A    between atoms: C_24  and  C_28
REMARK                            x       y       z     vdW  Elec       q    Type
REMARK                         _______ _______ _______ _____ _____    ______ ____
ROOT
ATOM      1  C   UNL     1       5.604  -1.507   0.000  0.00  0.00    +0.110 C 
ENDROOT
BRANCH   1   3
ATOM      2  O   UNL     1       6.222  -3.409   0.000  0.00  0.00    -0.226 OA
ATOM      3  N   UNL     1       6.582  -1.715   0.000  0.00  0.00    -0.275 N 
ATOM      4  C   UNL     1       6.891  -2.666   0.000  0.00  0.00    +0.401 C 
ATOM      5  H   UNL     1       6.997  -1.254   0.000  0.00  0.00    +0.152 HD
BRANCH   4   6
ATOM      6  O   UNL     1       7.869  -2.874   0.000  0.00  0.00    -0.444 OA
BRANCH   6  11
ATOM      7  O   UNL     1       8.178  -5.443   0.000  0.00  0.00    -0.347 OA
ATOM      8  O   UNL     1      10.075  -5.439   0.000  0.00  0.00    -0.351 OA
ATOM      9  C   UNL     1       9.129  -4.134   0.000  0.00  0.00    +0.090 C 
ATOM     10  C   UNL     1       9.129  -5.134   0.000  0.00  0.00    +0.257 C 
ATOM     11  C   UNL     1       8.178  -3.825   0.000  0.00  0.00    +0.212 C 
ATOM     12  C   UNL     1      10.075  -3.830   0.000  0.00  0.00    +0.040 C 
ATOM     13  C   UNL     1       7.590  -4.634   0.000  0.00  0.00    +0.208 C 
ATOM     14  C   UNL     1      10.659  -4.634   0.000  0.00  0.00    +0.163 C 
ENDBRANCH   6  11
ENDBRANCH   4   6
ENDBRANCH   1   3
BRANCH   1  15
ATOM     15  C   UNL     1       5.295  -0.556   0.000  0.00  0.00    +0.151 C 
BRANCH  15  16
ATOM     16  O   UNL     1       4.316  -0.348   0.000  0.00  0.00    -0.389 OA
ATOM     17  H   UNL     1       4.125   0.241   0.000  0.00  0.00    +0.210 HD
ENDBRANCH  15  16
BRANCH  15  18
ATOM     18  C   UNL     1       5.964   0.187   0.000  0.00  0.00    +0.142 C 
BRANCH  18  19
ATOM     19  N   UNL     1       5.655   1.138   0.000  0.00  0.00    -0.174 NA
BRANCH  19  20
ATOM     20  S   UNL     1       6.324   1.881   0.000  0.00  0.00    +0.061 S 
ATOM     21  O   UNL     1       5.581   2.550   0.000  0.00  0.00    -0.153 OA
ATOM     22  O   UNL     1       7.067   1.212   0.000  0.00  0.00    -0.153 OA
BRANCH  20  23
ATOM     23  C   UNL     1       6.993   2.624   0.000  0.00  0.00    +0.106 A 
ATOM     24  C   UNL     1       7.971   2.416   0.000  0.00  0.00    +0.030 A 
ATOM     25  C   UNL     1       6.684   3.575   0.000  0.00  0.00    +0.030 A 
ATOM     26  C   UNL     1       8.640   3.159   0.000  0.00  0.00    +0.024 A 
ATOM     27  C   UNL     1       7.353   4.318   0.000  0.00  0.00    +0.024 A 
ATOM     28  C   UNL     1       8.331   4.111   0.000  0.00  0.00    +0.025 A 
BRANCH  28  29
ATOM     29  N   UNL     1       9.000   4.854   0.000  0.00  0.00    -0.358 N 
ATOM     30  H   UNL     1       8.809   5.443   0.000  0.00  0.00    +0.142 HD
ATOM     31  H   UNL     1       9.607   4.725   0.000  0.00  0.00    +0.142 HD
ENDBRANCH  28  29
ENDBRANCH  20  23
ENDBRANCH  19  20
BRANCH  19  32
ATOM     32  C   UNL     1       4.676   1.346   0.000  0.00  0.00    +0.112 C 
BRANCH  32  33
ATOM     33  C   UNL     1       4.367   2.297   0.000  0.00  0.00    -0.001 C 
ATOM     34  C   UNL     1       3.389   2.505   0.000  0.00  0.00    +0.008 C 
ATOM     35  C   UNL     1       5.037   3.040   0.000  0.00  0.00    +0.008 C 
ENDBRANCH  32  33
ENDBRANCH  19  32
ENDBRANCH  18  19
ENDBRANCH  15  18
ENDBRANCH   1  15
BRANCH   1  36
ATOM     36  C   UNL     1       4.934  -2.251   0.000  0.00  0.00    +0.060 C 
BRANCH  36  37
ATOM     37  C   UNL     1       3.956  -2.043   0.000  0.00  0.00    -0.046 A 
ATOM     38  C   UNL     1       3.287  -2.786   0.000  0.00  0.00    +0.004 A 
ATOM     39  C   UNL     1       3.647  -1.091   0.000  0.00  0.00    +0.004 A 
ATOM     40  C   UNL     1       2.309  -2.578   0.000  0.00  0.00    +0.000 A 
ATOM     41  C   UNL     1       2.669  -0.884   0.000  0.00  0.00    +0.000 A 
ATOM     42  C   UNL     1       2.000  -1.627   0.000  0.00  0.00    +0.000 A 
ENDBRANCH  36  37
ENDBRANCH   1  36
TORSDOF 14
