MODEL 1
REMARK VINA RESULT:      -9.1      0.000      0.000
REMARK  Name = 3152
REMARK  8 active torsions:
REMARK  status: ('A' for Active; 'I' for Inactive)
REMARK    1  A    between atoms: O_2  and  C_20
REMARK    2  A    between atoms: O_2  and  C_27
REMARK    3  A    between atoms: O_3  and  C_21
REMARK    4  A    between atoms: O_3  and  C_28
REMARK    5  A    between atoms: N_4  and  C_16
REMARK    6  A    between atoms: C_5  and  C_6
REMARK    7  A    between atoms: C_6  and  C_7
REMARK    8  A    between atoms: C_16  and  C_19
REMARK                            x       y       z     vdW  Elec       q    Type
REMARK                         _______ _______ _______ _____ _____    ______ ____
ROOT
ATOM      1  C   UNL     1       2.028  58.394  71.520  0.00  0.00    +0.015 C 
ENDROOT
BRANCH   1   3
ATOM      2  O   UNL     1       1.815  56.775  72.947  0.00  0.00    -0.292 OA
ATOM      3  C   UNL     1       1.885  58.494  72.505  0.00  0.00    +0.065 C 
ATOM      4  C   UNL     1       1.816  59.353  73.001  0.00  0.00    +0.047 C 
ATOM      5  C   UNL     1       1.787  57.751  73.160  0.00  0.00    +0.167 C 
ATOM      6  C   UNL     1       1.676  59.145  73.962  0.00  0.00    -0.033 A 
ATOM      7  C   UNL     1       1.658  58.150  74.061  0.00  0.00    +0.025 A 
ATOM      8  C   UNL     1       1.561  59.729  74.766  0.00  0.00    +0.053 A 
ATOM      9  C   UNL     1       1.525  57.739  74.963  0.00  0.00    +0.061 A 
ATOM     10  C   UNL     1       1.428  59.318  75.668  0.00  0.00    +0.162 A 
ATOM     11  C   UNL     1       1.410  58.323  75.766  0.00  0.00    +0.162 A 
BRANCH  10  12
ATOM     12  O   UNL     1       1.314  59.902  76.471  0.00  0.00    -0.491 OA
ATOM     13  C   UNL     1       1.439  60.891  76.392  0.00  0.00    +0.277 C 
ENDBRANCH  10  12
BRANCH  11  14
ATOM     14  O   UNL     1       1.278  57.912  76.668  0.00  0.00    -0.491 OA
ATOM     15  C   UNL     1       1.400  56.928  76.792  0.00  0.00    +0.277 C 
ENDBRANCH  11  14
ENDBRANCH   1   3
BRANCH   1  17
ATOM     16  N   UNL     1       3.745  60.363  70.046  0.00  0.00    -0.298 NA
ATOM     17  C   UNL     1       2.600  59.050  71.029  0.00  0.00    -0.008 C 
ATOM     18  C   UNL     1       3.596  58.995  71.098  0.00  0.00    +0.019 C 
ATOM     19  C   UNL     1       2.176  59.762  70.468  0.00  0.00    +0.019 C 
ATOM     20  C   UNL     1       4.168  59.652  70.606  0.00  0.00    +0.085 C 
ATOM     21  C   UNL     1       2.748  60.418  69.977  0.00  0.00    +0.085 C 
BRANCH  16  22
ATOM     22  C   UNL     1       4.317  61.019  69.554  0.00  0.00    +0.119 C 
BRANCH  22  23
ATOM     23  C   UNL     1       4.447  61.941  69.919  0.00  0.00    -0.033 A 
ATOM     24  C   UNL     1       3.960  62.714  69.512  0.00  0.00    +0.005 A 
ATOM     25  C   UNL     1       5.064  62.091  70.692  0.00  0.00    +0.005 A 
ATOM     26  C   UNL     1       4.090  63.636  69.877  0.00  0.00    +0.000 A 
ATOM     27  C   UNL     1       5.194  63.012  71.057  0.00  0.00    +0.000 A 
ATOM     28  C   UNL     1       4.707  63.785  70.650  0.00  0.00    +0.000 A 
ENDBRANCH  22  23
ENDBRANCH  16  22
ENDBRANCH   1  17
TORSDOF 6
ENDMDL
MODEL 2
REMARK VINA RESULT:      -8.3      2.758      6.300
REMARK  Name = 3152
REMARK  8 active torsions:
REMARK  status: ('A' for Active; 'I' for Inactive)
REMARK    1  A    between atoms: O_2  and  C_20
REMARK    2  A    between atoms: O_2  and  C_27
REMARK    3  A    between atoms: O_3  and  C_21
REMARK    4  A    between atoms: O_3  and  C_28
REMARK    5  A    between atoms: N_4  and  C_16
REMARK    6  A    between atoms: C_5  and  C_6
REMARK    7  A    between atoms: C_6  and  C_7
REMARK    8  A    between atoms: C_16  and  C_19
REMARK                            x       y       z     vdW  Elec       q    Type
REMARK                         _______ _______ _______ _____ _____    ______ ____
ROOT
ATOM      1  C   UNL     1       2.889  58.732  70.954  0.00  0.00    +0.015 C 
ENDROOT
BRANCH   1   3
ATOM      2  O   UNL     1       1.896  59.889  69.413  0.00  0.00    -0.292 OA
ATOM      3  C   UNL     1       3.131  59.660  70.669  0.00  0.00    +0.065 C 
ATOM      4  C   UNL     1       3.868  60.212  71.043  0.00  0.00    +0.047 C 
ATOM      5  C   UNL     1       2.675  60.190  69.962  0.00  0.00    +0.167 C 
ATOM      6  C   UNL     1       3.871  61.085  70.568  0.00  0.00    -0.033 A 
ATOM      7  C   UNL     1       3.130  61.072  69.897  0.00  0.00    +0.025 A 
ATOM      8  C   UNL     1       4.451  61.895  70.657  0.00  0.00    +0.053 A 
ATOM      9  C   UNL     1       2.968  61.868  69.314  0.00  0.00    +0.061 A 
ATOM     10  C   UNL     1       4.289  62.692  70.074  0.00  0.00    +0.162 A 
ATOM     11  C   UNL     1       3.548  62.678  69.403  0.00  0.00    +0.162 A 
BRANCH  10  12
ATOM     12  O   UNL     1       4.869  63.502  70.163  0.00  0.00    -0.491 OA
ATOM     13  C   UNL     1       5.244  63.753  71.055  0.00  0.00    +0.277 C 
ENDBRANCH  10  12
BRANCH  11  14
ATOM     14  O   UNL     1       3.387  63.475  68.820  0.00  0.00    -0.491 OA
ATOM     15  C   UNL     1       3.455  63.389  67.826  0.00  0.00    +0.277 C 
ENDBRANCH  11  14
ENDBRANCH   1   3
BRANCH   1  17
ATOM     16  N   UNL     1       1.522  58.280  73.587  0.00  0.00    -0.298 NA
ATOM     17  C   UNL     1       2.433  58.582  71.832  0.00  0.00    -0.008 C 
ATOM     18  C   UNL     1       2.911  58.790  72.685  0.00  0.00    +0.019 C 
ATOM     19  C   UNL     1       1.500  58.222  71.856  0.00  0.00    +0.019 C 
ATOM     20  C   UNL     1       2.455  58.640  73.563  0.00  0.00    +0.085 C 
ATOM     21  C   UNL     1       1.045  58.072  72.733  0.00  0.00    +0.085 C 
BRANCH  16  22
ATOM     22  C   UNL     1       1.067  58.130  74.464  0.00  0.00    +0.119 C 
BRANCH  22  23
ATOM     23  C   UNL     1       0.325  58.735  74.752  0.00  0.00    -0.033 A 
ATOM     24  C   UNL     1       0.523  59.680  75.014  0.00  0.00    +0.005 A 
ATOM     25  C   UNL     1      -0.616  58.396  74.779  0.00  0.00    +0.005 A 
ATOM     26  C   UNL     1      -0.219  60.285  75.303  0.00  0.00    +0.000 A 
ATOM     27  C   UNL     1      -1.358  59.001  75.067  0.00  0.00    +0.000 A 
ATOM     28  C   UNL     1      -1.159  59.946  75.329  0.00  0.00    +0.000 A 
ENDBRANCH  22  23
ENDBRANCH  16  22
ENDBRANCH   1  17
TORSDOF 6
ENDMDL
MODEL 3
REMARK VINA RESULT:      -8.3      1.767      2.462
REMARK  Name = 3152
REMARK  8 active torsions:
REMARK  status: ('A' for Active; 'I' for Inactive)
REMARK    1  A    between atoms: O_2  and  C_20
REMARK    2  A    between atoms: O_2  and  C_27
REMARK    3  A    between atoms: O_3  and  C_21
REMARK    4  A    between atoms: O_3  and  C_28
REMARK    5  A    between atoms: N_4  and  C_16
REMARK    6  A    between atoms: C_5  and  C_6
REMARK    7  A    between atoms: C_6  and  C_7
REMARK    8  A    between atoms: C_16  and  C_19
REMARK                            x       y       z     vdW  Elec       q    Type
REMARK                         _______ _______ _______ _____ _____    ______ ____
ROOT
ATOM      1  C   UNL     1       1.989  58.414  73.501  0.00  0.00    +0.015 C 
ENDROOT
BRANCH   1   3
ATOM      2  O   UNL     1       0.161  57.680  74.408  0.00  0.00    -0.292 OA
ATOM      3  C   UNL     1       1.328  58.960  74.016  0.00  0.00    +0.065 C 
ATOM      4  C   UNL     1       1.395  59.935  74.201  0.00  0.00    +0.047 C 
ATOM      5  C   UNL     1       0.490  58.623  74.432  0.00  0.00    +0.167 C 
ATOM      6  C   UNL     1       0.599  60.203  74.732  0.00  0.00    -0.033 A 
ATOM      7  C   UNL     1       0.037  59.389  74.875  0.00  0.00    +0.025 A 
ATOM      8  C   UNL     1       0.308  61.084  75.106  0.00  0.00    +0.053 A 
ATOM      9  C   UNL     1      -0.817  59.454  75.393  0.00  0.00    +0.061 A 
ATOM     10  C   UNL     1      -0.545  61.149  75.624  0.00  0.00    +0.162 A 
ATOM     11  C   UNL     1      -1.108  60.335  75.767  0.00  0.00    +0.162 A 
BRANCH  10  12
ATOM     12  O   UNL     1      -0.836  62.030  75.998  0.00  0.00    -0.491 OA
ATOM     13  C   UNL     1      -0.341  62.864  75.756  0.00  0.00    +0.277 C 
ENDBRANCH  10  12
BRANCH  11  14
ATOM     14  O   UNL     1      -1.961  60.401  76.285  0.00  0.00    -0.491 OA
ATOM     15  C   UNL     1      -2.506  59.580  76.457  0.00  0.00    +0.277 C 
ENDBRANCH  11  14
ENDBRANCH   1   3
BRANCH   1  17
ATOM     16  N   UNL     1       3.084  59.440  70.904  0.00  0.00    -0.298 NA
ATOM     17  C   UNL     1       2.354  58.756  72.635  0.00  0.00    -0.008 C 
ATOM     18  C   UNL     1       1.839  58.623  71.788  0.00  0.00    +0.019 C 
ATOM     19  C   UNL     1       3.233  59.231  72.616  0.00  0.00    +0.019 C 
ATOM     20  C   UNL     1       2.205  58.965  70.922  0.00  0.00    +0.085 C 
ATOM     21  C   UNL     1       3.599  59.573  71.751  0.00  0.00    +0.085 C 
BRANCH  16  22
ATOM     22  C   UNL     1       3.449  59.783  70.038  0.00  0.00    +0.119 C 
BRANCH  22  23
ATOM     23  C   UNL     1       3.377  60.755  69.814  0.00  0.00    -0.033 A 
ATOM     24  C   UNL     1       4.189  61.337  69.848  0.00  0.00    +0.005 A 
ATOM     25  C   UNL     1       2.493  61.144  69.556  0.00  0.00    +0.005 A 
ATOM     26  C   UNL     1       4.117  62.309  69.624  0.00  0.00    +0.000 A 
ATOM     27  C   UNL     1       2.421  62.116  69.333  0.00  0.00    +0.000 A 
ATOM     28  C   UNL     1       3.233  62.699  69.367  0.00  0.00    +0.000 A 
ENDBRANCH  22  23
ENDBRANCH  16  22
ENDBRANCH   1  17
TORSDOF 6
ENDMDL
MODEL 4
REMARK VINA RESULT:      -7.6      1.733      3.185
REMARK  Name = 3152
REMARK  8 active torsions:
REMARK  status: ('A' for Active; 'I' for Inactive)
REMARK    1  A    between atoms: O_2  and  C_20
REMARK    2  A    between atoms: O_2  and  C_27
REMARK    3  A    between atoms: O_3  and  C_21
REMARK    4  A    between atoms: O_3  and  C_28
REMARK    5  A    between atoms: N_4  and  C_16
REMARK    6  A    between atoms: C_5  and  C_6
REMARK    7  A    between atoms: C_6  and  C_7
REMARK    8  A    between atoms: C_16  and  C_19
REMARK                            x       y       z     vdW  Elec       q    Type
REMARK                         _______ _______ _______ _____ _____    ______ ____
ROOT
ATOM      1  C   UNL     1       2.179  59.187  74.151  0.00  0.00    +0.015 C 
ENDROOT
BRANCH   1   3
ATOM      2  O   UNL     1       2.926  60.228  75.900  0.00  0.00    -0.292 OA
ATOM      3  C   UNL     1       1.701  59.908  74.654  0.00  0.00    +0.065 C 
ATOM      4  C   UNL     1       0.801  60.272  74.439  0.00  0.00    +0.047 C 
ATOM      5  C   UNL     1       2.044  60.385  75.456  0.00  0.00    +0.167 C 
ATOM      6  C   UNL     1       0.585  60.975  75.107  0.00  0.00    -0.033 A 
ATOM      7  C   UNL     1       1.357  61.045  75.739  0.00  0.00    +0.025 A 
ATOM      8  C   UNL     1      -0.215  61.564  75.227  0.00  0.00    +0.053 A 
ATOM      9  C   UNL     1       1.329  61.705  76.490  0.00  0.00    +0.061 A 
ATOM     10  C   UNL     1      -0.242  62.223  75.978  0.00  0.00    +0.162 A 
ATOM     11  C   UNL     1       0.530  62.294  76.610  0.00  0.00    +0.162 A 
BRANCH  10  12
ATOM     12  O   UNL     1      -1.041  62.812  76.098  0.00  0.00    -0.491 OA
ATOM     13  C   UNL     1      -1.857  62.667  75.537  0.00  0.00    +0.277 C 
ENDBRANCH  10  12
BRANCH  11  14
ATOM     14  O   UNL     1       0.503  62.953  77.361  0.00  0.00    -0.491 OA
ATOM     15  C   UNL     1       1.211  63.655  77.436  0.00  0.00    +0.277 C 
ENDBRANCH  11  14
ENDBRANCH   1   3
BRANCH   1  17
ATOM     16  N   UNL     1       3.021  59.647  71.309  0.00  0.00    -0.298 NA
ATOM     17  C   UNL     1       2.459  59.340  73.203  0.00  0.00    -0.008 C 
ATOM     18  C   UNL     1       1.849  59.085  72.453  0.00  0.00    +0.019 C 
ATOM     19  C   UNL     1       3.351  59.748  73.006  0.00  0.00    +0.019 C 
ATOM     20  C   UNL     1       2.130  59.239  71.506  0.00  0.00    +0.085 C 
ATOM     21  C   UNL     1       3.631  59.902  72.059  0.00  0.00    +0.085 C 
BRANCH  16  22
ATOM     22  C   UNL     1       3.302  59.800  70.361  0.00  0.00    +0.119 C 
BRANCH  22  23
ATOM     23  C   UNL     1       3.269  60.721  69.973  0.00  0.00    -0.033 A 
ATOM     24  C   UNL     1       2.415  61.070  69.586  0.00  0.00    +0.005 A 
ATOM     25  C   UNL     1       4.089  61.293  69.970  0.00  0.00    +0.005 A 
ATOM     26  C   UNL     1       2.382  61.991  69.198  0.00  0.00    +0.000 A 
ATOM     27  C   UNL     1       4.056  62.213  69.581  0.00  0.00    +0.000 A 
ATOM     28  C   UNL     1       3.202  62.562  69.195  0.00  0.00    +0.000 A 
ENDBRANCH  22  23
ENDBRANCH  16  22
ENDBRANCH   1  17
TORSDOF 6
ENDMDL
MODEL 5
REMARK VINA RESULT:      -7.2      3.141      6.285
REMARK  Name = 3152
REMARK  8 active torsions:
REMARK  status: ('A' for Active; 'I' for Inactive)
REMARK    1  A    between atoms: O_2  and  C_20
REMARK    2  A    between atoms: O_2  and  C_27
REMARK    3  A    between atoms: O_3  and  C_21
REMARK    4  A    between atoms: O_3  and  C_28
REMARK    5  A    between atoms: N_4  and  C_16
REMARK    6  A    between atoms: C_5  and  C_6
REMARK    7  A    between atoms: C_6  and  C_7
REMARK    8  A    between atoms: C_16  and  C_19
REMARK                            x       y       z     vdW  Elec       q    Type
REMARK                         _______ _______ _______ _____ _____    ______ ____
ROOT
ATOM      1  C   UNL     1       1.597  58.484  74.385  0.00  0.00    +0.015 C 
ENDROOT
BRANCH   1   3
ATOM      2  O   UNL     1       3.656  59.101  74.104  0.00  0.00    -0.292 OA
ATOM      3  C   UNL     1       1.993  58.838  73.538  0.00  0.00    +0.065 C 
ATOM      4  C   UNL     1       1.511  58.968  72.677  0.00  0.00    +0.047 C 
ATOM      5  C   UNL     1       2.937  59.121  73.409  0.00  0.00    +0.167 C 
ATOM      6  C   UNL     1       2.156  59.332  72.015  0.00  0.00    -0.033 A 
ATOM      7  C   UNL     1       3.042  59.427  72.469  0.00  0.00    +0.025 A 
ATOM      8  C   UNL     1       2.057  59.591  71.054  0.00  0.00    +0.053 A 
ATOM      9  C   UNL     1       3.828  59.781  71.962  0.00  0.00    +0.061 A 
ATOM     10  C   UNL     1       2.843  59.945  70.547  0.00  0.00    +0.162 A 
ATOM     11  C   UNL     1       3.728  60.040  71.002  0.00  0.00    +0.162 A 
BRANCH  10  12
ATOM     12  O   UNL     1       2.743  60.204  69.587  0.00  0.00    -0.491 OA
ATOM     13  C   UNL     1       1.922  60.686  69.281  0.00  0.00    +0.277 C 
ENDBRANCH  10  12
BRANCH  11  14
ATOM     14  O   UNL     1       4.515  60.394  70.495  0.00  0.00    -0.491 OA
ATOM     15  C   UNL     1       5.074  61.125  70.887  0.00  0.00    +0.277 C 
ENDBRANCH  11  14
ENDBRANCH   1   3
BRANCH   1  17
ATOM     16  N   UNL     1      -0.819  59.804  75.577  0.00  0.00    -0.298 NA
ATOM     17  C   UNL     1       0.791  58.924  74.782  0.00  0.00    -0.008 C 
ATOM     18  C   UNL     1      -0.111  58.506  74.674  0.00  0.00    +0.019 C 
ATOM     19  C   UNL     1       0.888  59.781  75.288  0.00  0.00    +0.019 C 
ATOM     20  C   UNL     1      -0.916  58.946  75.072  0.00  0.00    +0.085 C 
ATOM     21  C   UNL     1       0.083  60.221  75.685  0.00  0.00    +0.085 C 
BRANCH  16  22
ATOM     22  C   UNL     1      -1.624  60.244  75.975  0.00  0.00    +0.119 C 
BRANCH  22  23
ATOM     23  C   UNL     1      -2.224  60.802  75.401  0.00  0.00    -0.033 A 
ATOM     24  C   UNL     1      -3.098  60.433  75.084  0.00  0.00    +0.005 A 
ATOM     25  C   UNL     1      -1.949  61.728  75.143  0.00  0.00    +0.005 A 
ATOM     26  C   UNL     1      -3.697  60.991  74.510  0.00  0.00    +0.000 A 
ATOM     27  C   UNL     1      -2.548  62.286  74.569  0.00  0.00    +0.000 A 
ATOM     28  C   UNL     1      -3.423  61.917  74.253  0.00  0.00    +0.000 A 
ENDBRANCH  22  23
ENDBRANCH  16  22
ENDBRANCH   1  17
TORSDOF 6
ENDMDL
MODEL 6
REMARK VINA RESULT:      -7.1      2.731      6.164
REMARK  Name = 3152
REMARK  8 active torsions:
REMARK  status: ('A' for Active; 'I' for Inactive)
REMARK    1  A    between atoms: O_2  and  C_20
REMARK    2  A    between atoms: O_2  and  C_27
REMARK    3  A    between atoms: O_3  and  C_21
REMARK    4  A    between atoms: O_3  and  C_28
REMARK    5  A    between atoms: N_4  and  C_16
REMARK    6  A    between atoms: C_5  and  C_6
REMARK    7  A    between atoms: C_6  and  C_7
REMARK    8  A    between atoms: C_16  and  C_19
REMARK                            x       y       z     vdW  Elec       q    Type
REMARK                         _______ _______ _______ _____ _____    ______ ____
ROOT
ATOM      1  C   UNL     1       2.171  57.686  71.912  0.00  0.00    +0.015 C 
ENDROOT
BRANCH   1   3
ATOM      2  O   UNL     1       4.090  58.614  72.311  0.00  0.00    -0.292 OA
ATOM      3  C   UNL     1       2.513  58.530  71.498  0.00  0.00    +0.065 C 
ATOM      4  C   UNL     1       2.031  59.090  70.832  0.00  0.00    +0.047 C 
ATOM      5  C   UNL     1       3.393  58.956  71.681  0.00  0.00    +0.167 C 
ATOM      6  C   UNL     1       2.612  59.863  70.601  0.00  0.00    -0.033 A 
ATOM      7  C   UNL     1       3.458  59.780  71.129  0.00  0.00    +0.025 A 
ATOM      8  C   UNL     1       2.485  60.635  69.979  0.00  0.00    +0.053 A 
ATOM      9  C   UNL     1       4.176  60.469  71.034  0.00  0.00    +0.061 A 
ATOM     10  C   UNL     1       3.203  61.325  69.885  0.00  0.00    +0.162 A 
ATOM     11  C   UNL     1       4.049  61.241  70.412  0.00  0.00    +0.162 A 
BRANCH  10  12
ATOM     12  O   UNL     1       3.076  62.097  69.263  0.00  0.00    -0.491 OA
ATOM     13  C   UNL     1       2.231  62.632  69.296  0.00  0.00    +0.277 C 
ENDBRANCH  10  12
BRANCH  11  14
ATOM     14  O   UNL     1       4.767  61.931  70.317  0.00  0.00    -0.491 OA
ATOM     15  C   UNL     1       5.368  62.136  71.090  0.00  0.00    +0.277 C 
ENDBRANCH  11  14
ENDBRANCH   1   3
BRANCH   1  17
ATOM     16  N   UNL     1       0.182  57.812  74.154  0.00  0.00    -0.298 NA
ATOM     17  C   UNL     1       1.508  57.728  72.659  0.00  0.00    -0.008 C 
ATOM     18  C   UNL     1       1.822  57.855  73.600  0.00  0.00    +0.019 C 
ATOM     19  C   UNL     1       0.531  57.643  72.466  0.00  0.00    +0.019 C 
ATOM     20  C   UNL     1       1.159  57.898  74.347  0.00  0.00    +0.085 C 
ATOM     21  C   UNL     1      -0.132  57.685  73.213  0.00  0.00    +0.085 C 
BRANCH  16  22
ATOM     22  C   UNL     1      -0.482  57.854  74.901  0.00  0.00    +0.119 C 
BRANCH  22  23
ATOM     23  C   UNL     1      -0.995  58.696  75.067  0.00  0.00    -0.033 A 
ATOM     24  C   UNL     1      -1.992  58.697  74.993  0.00  0.00    +0.005 A 
ATOM     25  C   UNL     1      -0.511  59.538  75.307  0.00  0.00    +0.005 A 
ATOM     26  C   UNL     1      -2.506  59.539  75.159  0.00  0.00    +0.000 A 
ATOM     27  C   UNL     1      -1.025  60.380  75.472  0.00  0.00    +0.000 A 
ATOM     28  C   UNL     1      -2.022  60.380  75.399  0.00  0.00    +0.000 A 
ENDBRANCH  22  23
ENDBRANCH  16  22
ENDBRANCH   1  17
TORSDOF 6
ENDMDL
MODEL 7
REMARK VINA RESULT:      -6.7      2.928      5.428
REMARK  Name = 3152
REMARK  8 active torsions:
REMARK  status: ('A' for Active; 'I' for Inactive)
REMARK    1  A    between atoms: O_2  and  C_20
REMARK    2  A    between atoms: O_2  and  C_27
REMARK    3  A    between atoms: O_3  and  C_21
REMARK    4  A    between atoms: O_3  and  C_28
REMARK    5  A    between atoms: N_4  and  C_16
REMARK    6  A    between atoms: C_5  and  C_6
REMARK    7  A    between atoms: C_6  and  C_7
REMARK    8  A    between atoms: C_16  and  C_19
REMARK                            x       y       z     vdW  Elec       q    Type
REMARK                         _______ _______ _______ _____ _____    ______ ____
ROOT
ATOM      1  C   UNL     1       1.573  59.695  75.226  0.00  0.00    +0.015 C 
ENDROOT
BRANCH   1   3
ATOM      2  O   UNL     1       1.413  57.903  74.015  0.00  0.00    -0.292 OA
ATOM      3  C   UNL     1       2.023  59.538  74.346  0.00  0.00    +0.065 C 
ATOM      4  C   UNL     1       2.621  60.177  73.874  0.00  0.00    +0.047 C 
ATOM      5  C   UNL     1       1.949  58.716  73.791  0.00  0.00    +0.167 C 
ATOM      6  C   UNL     1       2.918  59.752  73.026  0.00  0.00    -0.033 A 
ATOM      7  C   UNL     1       2.501  58.845  72.974  0.00  0.00    +0.025 A 
ATOM      8  C   UNL     1       3.516  60.071  72.290  0.00  0.00    +0.053 A 
ATOM      9  C   UNL     1       2.682  58.256  72.187  0.00  0.00    +0.061 A 
ATOM     10  C   UNL     1       3.696  59.481  71.503  0.00  0.00    +0.162 A 
ATOM     11  C   UNL     1       3.279  58.574  71.451  0.00  0.00    +0.162 A 
BRANCH  10  12
ATOM     12  O   UNL     1       4.294  59.800  70.767  0.00  0.00    -0.491 OA
ATOM     13  C   UNL     1       4.422  60.780  70.615  0.00  0.00    +0.277 C 
ENDBRANCH  10  12
BRANCH  11  14
ATOM     14  O   UNL     1       3.460  57.985  70.663  0.00  0.00    -0.491 OA
ATOM     15  C   UNL     1       3.276  57.003  70.721  0.00  0.00    +0.277 C 
ENDBRANCH  11  14
ENDBRANCH   1   3
BRANCH   1  17
ATOM     16  N   UNL     1       0.042  62.231  75.698  0.00  0.00    -0.298 NA
ATOM     17  C   UNL     1       1.063  60.540  75.383  0.00  0.00    -0.008 C 
ATOM     18  C   UNL     1       0.116  60.618  75.070  0.00  0.00    +0.019 C 
ATOM     19  C   UNL     1       1.499  61.307  75.853  0.00  0.00    +0.019 C 
ATOM     20  C   UNL     1      -0.394  61.464  75.228  0.00  0.00    +0.085 C 
ATOM     21  C   UNL     1       0.989  62.153  76.011  0.00  0.00    +0.085 C 
BRANCH  16  22
ATOM     22  C   UNL     1      -0.468  63.076  75.855  0.00  0.00    +0.119 C 
BRANCH  22  23
ATOM     23  C   UNL     1      -0.305  63.874  75.274  0.00  0.00    -0.033 A 
ATOM     24  C   UNL     1      -0.653  63.889  74.337  0.00  0.00    +0.005 A 
ATOM     25  C   UNL     1       0.205  64.657  75.631  0.00  0.00    +0.005 A 
ATOM     26  C   UNL     1      -0.490  64.687  73.756  0.00  0.00    +0.000 A 
ATOM     27  C   UNL     1       0.367  65.454  75.050  0.00  0.00    +0.000 A 
ATOM     28  C   UNL     1       0.020  65.469  74.113  0.00  0.00    +0.000 A 
ENDBRANCH  22  23
ENDBRANCH  16  22
ENDBRANCH   1  17
TORSDOF 6
ENDMDL
MODEL 8
REMARK VINA RESULT:      -6.5      3.950      5.828
REMARK  Name = 3152
REMARK  8 active torsions:
REMARK  status: ('A' for Active; 'I' for Inactive)
REMARK    1  A    between atoms: O_2  and  C_20
REMARK    2  A    between atoms: O_2  and  C_27
REMARK    3  A    between atoms: O_3  and  C_21
REMARK    4  A    between atoms: O_3  and  C_28
REMARK    5  A    between atoms: N_4  and  C_16
REMARK    6  A    between atoms: C_5  and  C_6
REMARK    7  A    between atoms: C_6  and  C_7
REMARK    8  A    between atoms: C_16  and  C_19
REMARK                            x       y       z     vdW  Elec       q    Type
REMARK                         _______ _______ _______ _____ _____    ______ ____
ROOT
ATOM      1  C   UNL     1      -0.336  60.494  76.171  0.00  0.00    +0.015 C 
ENDROOT
BRANCH   1   3
ATOM      2  O   UNL     1      -1.435  62.362  76.097  0.00  0.00    -0.292 OA
ATOM      3  C   UNL     1      -1.276  60.610  75.851  0.00  0.00    +0.065 C 
ATOM      4  C   UNL     1      -1.870  59.889  75.511  0.00  0.00    +0.047 C 
ATOM      5  C   UNL     1      -1.780  61.467  75.817  0.00  0.00    +0.167 C 
ATOM      6  C   UNL     1      -2.743  60.297  75.266  0.00  0.00    -0.033 A 
ATOM      7  C   UNL     1      -2.687  61.277  75.456  0.00  0.00    +0.025 A 
ATOM      8  C   UNL     1      -3.585  59.907  74.894  0.00  0.00    +0.053 A 
ATOM      9  C   UNL     1      -3.473  61.867  75.274  0.00  0.00    +0.061 A 
ATOM     10  C   UNL     1      -4.371  60.497  74.711  0.00  0.00    +0.162 A 
ATOM     11  C   UNL     1      -4.315  61.477  74.902  0.00  0.00    +0.162 A 
BRANCH  10  12
ATOM     12  O   UNL     1      -5.213  60.108  74.339  0.00  0.00    -0.491 OA
ATOM     13  C   UNL     1      -5.479  59.173  74.576  0.00  0.00    +0.277 C 
ENDBRANCH  10  12
BRANCH  11  14
ATOM     14  O   UNL     1      -5.102  62.068  74.720  0.00  0.00    -0.491 OA
ATOM     15  C   UNL     1      -5.399  62.730  75.407  0.00  0.00    +0.277 C 
ENDBRANCH  11  14
ENDBRANCH   1   3
BRANCH   1  17
ATOM     16  N   UNL     1       1.704  59.195  74.396  0.00  0.00    -0.298 NA
ATOM     17  C   UNL     1       0.344  60.061  75.579  0.00  0.00    -0.008 C 
ATOM     18  C   UNL     1       0.958  60.625  75.027  0.00  0.00    +0.019 C 
ATOM     19  C   UNL     1       0.410  59.064  75.540  0.00  0.00    +0.019 C 
ATOM     20  C   UNL     1       1.638  60.192  74.435  0.00  0.00    +0.085 C 
ATOM     21  C   UNL     1       1.090  58.631  74.948  0.00  0.00    +0.085 C 
BRANCH  16  22
ATOM     22  C   UNL     1       2.384  58.762  73.804  0.00  0.00    +0.119 C 
BRANCH  22  23
ATOM     23  C   UNL     1       2.287  58.814  72.810  0.00  0.00    -0.033 A 
ATOM     24  C   UNL     1       1.704  58.159  72.329  0.00  0.00    +0.005 A 
ATOM     25  C   UNL     1       2.774  59.521  72.297  0.00  0.00    +0.005 A 
ATOM     26  C   UNL     1       1.608  58.211  71.335  0.00  0.00    +0.000 A 
ATOM     27  C   UNL     1       2.677  59.573  71.303  0.00  0.00    +0.000 A 
ATOM     28  C   UNL     1       2.094  58.918  70.822  0.00  0.00    +0.000 A 
ENDBRANCH  22  23
ENDBRANCH  16  22
ENDBRANCH   1  17
TORSDOF 6
ENDMDL
