REMARK  Name = 16142
REMARK  7 active torsions:
REMARK  status: ('A' for Active; 'I' for Inactive)
REMARK    1  A    between atoms: O_1  and  C_10
REMARK    2  A    between atoms: O_7  and  C_30
REMARK    3  A    between atoms: O_8  and  C_34
REMARK    4  A    between atoms: C_13  and  C_25
REMARK    5  A    between atoms: C_14  and  C_28
REMARK    6  A    between atoms: C_18  and  C_29
REMARK    7  A    between atoms: C_37  and  C_38
REMARK                            x       y       z     vdW  Elec       q    Type
REMARK                         _______ _______ _______ _____ _____    ______ ____
ROOT
ATOM      1  O   UNL     1       9.359  -1.514   0.000  0.00  0.00    -0.337 OA
ATOM      2  O   UNL     1      11.225  -0.436   0.000  0.00  0.00    -0.341 OA
ATOM      3  O   UNL     1      12.221  -2.071   0.000  0.00  0.00    -0.343 OA
ATOM      4  C   UNL     1       6.733   3.175   0.000  0.00  0.00    +0.075 C 
ATOM      5  C   UNL     1       7.627   2.640   0.000  0.00  0.00    +0.025 C 
ATOM      6  C   UNL     1       7.627   1.640   0.000  0.00  0.00    +0.008 C 
ATOM      7  C   UNL     1       5.827   2.661   0.000  0.00  0.00    +0.004 C 
ATOM      8  C   UNL     1       8.493   1.140   0.000  0.00  0.00    +0.034 C 
ATOM      9  C   UNL     1       9.359   1.640   0.000  0.00  0.00    +0.005 C 
ATOM     10  C   UNL     1       6.733   1.105   0.000  0.00  0.00    +0.005 C 
ATOM     11  C   UNL     1       5.827   1.619   0.000  0.00  0.00    +0.010 C 
ATOM     12  C   UNL     1       5.065   3.361   0.000  0.00  0.00    +0.027 C 
ATOM     13  C   UNL     1       8.493   3.140   0.000  0.00  0.00    +0.007 C 
ATOM     14  C   UNL     1       6.523   4.189   0.000  0.00  0.00    +0.036 C 
ATOM     15  C   UNL     1       9.359   2.640   0.000  0.00  0.00    +0.005 C 
ATOM     16  C   UNL     1       5.494   4.304   0.000  0.00  0.00    +0.011 C 
ATOM     17  C   UNL     1       8.477   0.099   0.000  0.00  0.00    +0.049 C 
ATOM     18  C   UNL     1      10.269   1.133   0.000  0.00  0.00    +0.038 C 
ATOM     19  C   UNL     1       4.957   2.167   0.000  0.00  0.00    +0.014 C 
ATOM     20  C   UNL     1       9.375  -0.429   0.000  0.00  0.00    +0.152 C 
ATOM     21  C   UNL     1      10.277   0.091   0.000  0.00  0.00    +0.151 C 
ATOM     22  C   UNL     1      10.294  -2.064   0.000  0.00  0.00    +0.247 C 
ATOM     23  C   UNL     1      11.234  -1.521   0.000  0.00  0.00    +0.314 C 
ATOM     24  C   UNL     1      10.277  -3.194   0.000  0.00  0.00    +0.181 C 
ATOM     25  C   UNL     1      11.251  -3.767   0.000  0.00  0.00    +0.068 C 
ATOM     26  C   UNL     1      12.230  -3.201   0.000  0.00  0.00    +0.121 C 
ATOM     27  C   UNL     1      13.098  -3.698   0.000  0.00  0.00    +0.038 C 
ENDROOT
BRANCH  12  30
ATOM     28  O   UNL     1       2.478   3.347   0.000  0.00  0.00    -0.457 OA
ATOM     29  O   UNL     1       2.000   1.630   0.000  0.00  0.00    -0.246 OA
ATOM     30  C   UNL     1       4.085   3.163   0.000  0.00  0.00    -0.022 C 
ATOM     31  C   UNL     1       3.348   3.839   0.000  0.00  0.00    +0.264 C 
ATOM     32  C   UNL     1       3.670   2.253   0.000  0.00  0.00    +0.094 C 
ATOM     33  C   UNL     1       2.676   2.367   0.000  0.00  0.00    +0.332 C 
ENDBRANCH  12  30
BRANCH   4  34
ATOM     34  O   UNL     1       7.603   3.668   0.000  0.00  0.00    -0.388 OA
ATOM     35  H   UNL     1       7.608   4.288   0.000  0.00  0.00    +0.210 HD
ENDBRANCH   4  34
BRANCH   8  37
ATOM     36  O   UNL     1       8.193  -0.566   0.000  0.00  0.00    -0.300 OA
ATOM     37  C   UNL     1       7.851   0.374   0.000  0.00  0.00    +0.230 C 
ENDBRANCH   8  37
BRANCH  22  38
ATOM     38  O   UNL     1       9.428  -2.564   0.000  0.00  0.00    -0.359 OA
ATOM     39  H   UNL     1       8.891  -2.254   0.000  0.00  0.00    +0.213 HD
ENDBRANCH  22  38
BRANCH  24  40
ATOM     40  O   UNL     1       9.405  -3.684   0.000  0.00  0.00    -0.386 OA
ATOM     41  H   UNL     1       9.398  -4.304   0.000  0.00  0.00    +0.210 HD
ENDBRANCH  24  40
TORSDOF 5
