REMARK  Name = 5362440
REMARK  17 active torsions:
REMARK  status: ('A' for Active; 'I' for Inactive)
REMARK    1  A    between atoms: O_1  and  C_15
REMARK    2  A    between atoms: O_2  and  C_20
REMARK    3  A    between atoms: N_5  and  C_13
REMARK    4  A    between atoms: N_6  and  C_21
REMARK    5  A    between atoms: N_7  and  C_18
REMARK    6  A    between atoms: N_8  and  C_27
REMARK    7  A    between atoms: C_10  and  C_19
REMARK    8  A    between atoms: C_13  and  C_15
REMARK    9  A    between atoms: C_15  and  C_16
REMARK   10  A    between atoms: C_16  and  C_17
REMARK   11  A    between atoms: C_17  and  C_24
REMARK   12  A    between atoms: C_17  and  C_25
REMARK   13  A    between atoms: C_21  and  C_28
REMARK   14  A    between atoms: C_25  and  C_30
REMARK   15  A    between atoms: C_27  and  C_32
REMARK   16  A    between atoms: C_27  and  C_33
REMARK   17  A    between atoms: C_27  and  C_34
REMARK                            x       y       z     vdW  Elec       q    Type
REMARK                         _______ _______ _______ _____ _____    ______ ____
ROOT
ATOM      1  C   UNL     1       7.925   0.744   0.000  0.00  0.00    +0.129 C 
ENDROOT
BRANCH   1   2
ATOM      2  O   UNL     1       7.614  -0.206   0.000  0.00  0.00    -0.391 OA
ATOM      3  H   UNL     1       8.028  -0.668   0.000  0.00  0.00    +0.210 HD
ENDBRANCH   1   2
BRANCH   1   4
ATOM      4  C   UNL     1       8.903   0.951   0.000  0.00  0.00    +0.116 C 
BRANCH   4   5
ATOM      5  N   UNL     1       9.571   0.206   0.000  0.00  0.00    -0.287 NA
ATOM      6  N   UNL     1      10.906  -1.282   0.000  0.00  0.00    -0.295 NA
ATOM      7  C   UNL     1      10.549   0.412   0.000  0.00  0.00    +0.157 C 
ATOM      8  C   UNL     1      11.217  -0.332   0.000  0.00  0.00    +0.113 C 
ATOM      9  C   UNL     1       9.260  -0.744   0.000  0.00  0.00    +0.100 C 
ATOM     10  C   UNL     1       9.928  -1.489   0.000  0.00  0.00    +0.100 C 
BRANCH   7  13
ATOM     11  O   UNL     1      10.192   2.107   0.000  0.00  0.00    -0.274 OA
ATOM     12  N   UNL     1      11.838   1.569   0.000  0.00  0.00    -0.309 N 
ATOM     13  C   UNL     1      10.860   1.363   0.000  0.00  0.00    +0.232 C 
ATOM     14  H   UNL     1      12.031   2.159   0.000  0.00  0.00    +0.149 HD
BRANCH  12  15
ATOM     15  C   UNL     1      12.506   0.825   0.000  0.00  0.00    +0.026 C 
ATOM     16  C   UNL     1      13.174   0.081   0.000  0.00  0.00    +0.031 C 
ATOM     17  C   UNL     1      13.251   1.493   0.000  0.00  0.00    +0.031 C 
ATOM     18  C   UNL     1      11.762   0.157   0.000  0.00  0.00    +0.031 C 
ENDBRANCH  12  15
ENDBRANCH   7  13
BRANCH   6  19
ATOM     19  C   UNL     1      11.574  -2.027   0.000  0.00  0.00    +0.121 C 
BRANCH  19  21
ATOM     20  N   UNL     1       9.975  -4.134   0.000  0.00  0.00    -0.263 NA
ATOM     21  C   UNL     1      11.264  -2.977   0.000  0.00  0.00    -0.015 A 
ATOM     22  C   UNL     1      11.931  -3.721   0.000  0.00  0.00    +0.008 A 
ATOM     23  C   UNL     1      10.285  -3.183   0.000  0.00  0.00    +0.115 A 
ATOM     24  C   UNL     1      11.621  -4.672   0.000  0.00  0.00    +0.020 A 
ATOM     25  C   UNL     1      10.642  -4.878   0.000  0.00  0.00    +0.111 A 
ENDBRANCH  19  21
ENDBRANCH   6  19
ENDBRANCH   4   5
ENDBRANCH   1   4
BRANCH   1  26
ATOM     26  C   UNL     1       7.257   1.489   0.000  0.00  0.00    +0.045 C 
BRANCH  26  27
ATOM     27  C   UNL     1       6.278   1.282   0.000  0.00  0.00    +0.082 C 
BRANCH  27  30
ATOM     28  O   UNL     1       6.635  -0.412   0.000  0.00  0.00    -0.275 OA
ATOM     29  N   UNL     1       4.989   0.126   0.000  0.00  0.00    -0.306 N 
ATOM     30  C   UNL     1       5.967   0.332   0.000  0.00  0.00    +0.217 C 
ATOM     31  H   UNL     1       4.575   0.587   0.000  0.00  0.00    +0.149 HD
BRANCH  29  32
ATOM     32  C   UNL     1       4.678  -0.825   0.000  0.00  0.00    +0.132 C 
ATOM     33  C   UNL     1       5.262  -1.630   0.000  0.00  0.00    +0.143 C 
ATOM     34  C   UNL     1       4.678  -2.434   0.000  0.00  0.00    +0.069 C 
ATOM     35  C   UNL     1       3.732  -1.130   0.000  0.00  0.00    -0.022 A 
ATOM     36  C   UNL     1       3.732  -2.130   0.000  0.00  0.00    -0.040 A 
ATOM     37  C   UNL     1       2.866  -0.630   0.000  0.00  0.00    +0.006 A 
ATOM     38  C   UNL     1       2.866  -2.630   0.000  0.00  0.00    +0.004 A 
ATOM     39  C   UNL     1       2.000  -1.130   0.000  0.00  0.00    +0.000 A 
ATOM     40  C   UNL     1       2.000  -2.130   0.000  0.00  0.00    +0.000 A 
BRANCH  33  41
ATOM     41  O   UNL     1       6.262  -1.630   0.000  0.00  0.00    -0.389 OA
ATOM     42  H   UNL     1       6.572  -2.167   0.000  0.00  0.00    +0.210 HD
ENDBRANCH  33  41
ENDBRANCH  29  32
ENDBRANCH  27  30
BRANCH  27  43
ATOM     43  C   UNL     1       5.610   2.027   0.000  0.00  0.00    +0.048 C 
BRANCH  43  44
ATOM     44  C   UNL     1       5.921   2.977   0.000  0.00  0.00    -0.047 A 
ATOM     45  C   UNL     1       6.899   3.183   0.000  0.00  0.00    +0.003 A 
ATOM     46  C   UNL     1       5.253   3.721   0.000  0.00  0.00    +0.003 A 
ATOM     47  C   UNL     1       7.210   4.134   0.000  0.00  0.00    +0.000 A 
ATOM     48  C   UNL     1       5.564   4.672   0.000  0.00  0.00    +0.000 A 
ATOM     49  C   UNL     1       6.542   4.878   0.000  0.00  0.00    +0.000 A 
ENDBRANCH  43  44
ENDBRANCH  27  43
ENDBRANCH  26  27
ENDBRANCH   1  26
TORSDOF 14
